40
Lattice="4.869 0.0 0.0 0.0 11.139 0.0 -2.4331938666787676 0.0 4.796087114216841" Properties=species:S:1:pos:R:3:shieldings:R:1 pbc="T T T"
O       -1.37378062       9.37012680       4.31094055       1.00000000
O        3.81072697       1.76887320       0.48538850       1.00000000
O        0.16020015       3.80062680       2.88355302       1.00000000
O        2.27674620       7.33837320       1.91277602       1.00000000
O        1.52880698      10.20221010       3.70276603       2.00000000
O        0.90813937       0.93678990       1.09356302       2.00000000
O        2.12661254       4.63271010       3.49172755       2.00000000
O        0.31033381       6.50628990       1.30460150       2.00000000
C        2.30559445       9.69427170       4.53684765       1.00000000
C        0.13135190       1.44472830       0.25948140       1.00000000
C        1.34982507       4.12477170       2.65764593       1.00000000
C        1.08712128       7.01422830       2.13868312       1.00000000
C        4.20301907       9.46258050       1.14728191       2.00000000
C       -1.76607272       1.67641950       3.64904714       2.00000000
C        1.88445411       3.89308050       1.25088262       2.00000000
C        0.55249224       7.24591950       3.54544643       2.00000000
N        2.91989368      10.14094560       1.34249250       1.00000000
N       -0.48294733       0.99805440       3.45383655       1.00000000
N        3.16757949       4.57144560       1.05567202       1.00000000
N       -0.73063314       6.56755440       3.74065702       1.00000000
H        4.08842677       8.51019600       1.28973288       1.00000000
H       -1.65148042       2.62880400       3.50659617       1.00000000
H        1.99904640       2.94069600       1.10843164       1.00000000
H        0.43789995       8.19830400       3.68789741       1.00000000
H       -0.02489272       9.80900340       1.78999000       2.00000000
H        2.46183907       1.32999660       3.00633905       2.00000000
H        1.24336590       4.23950340       0.60817452       2.00000000
H        1.19358045       6.89949660       4.18815452       2.00000000
H        2.62598512       9.98611350       2.17081853       3.00000000
H       -0.18903877       1.15288650       2.62551052       3.00000000
H        3.46148806       4.41661350       0.22734600       3.00000000
H       -1.02454171       6.72238650       4.56898305       3.00000000
H        2.32484761       9.82014240       0.75877926       3.00000000
H        0.11209874       1.31885760       4.03754979       3.00000000
H        3.76262556       4.25064240       1.63938527       3.00000000
H       -1.32567921       6.88835760       3.15694378       3.00000000
H        3.01818388      11.01201540       1.21778795       3.00000000
H       -0.58123753       0.12698460       3.57854110       3.00000000
H        3.06928930       5.44251540       1.18037658       3.00000000
H       -0.63234295       5.69648460       3.61595247       3.00000000
